PowerAgentBench/cases/case39/matpower/case39.m
function mpc = case39
%CASE39  IEEE 39-bus stressed benchmark scenario (PowerAgentBench).

%% MATPOWER Case Format : Version 2
mpc.version = '2';

%%-----  Power Flow Data  -----%%
mpc.baseMVA = 100.0;

%% bus data
%	bus_i	type	Pd	Qd	Gs	Bs	area	Vm	Va	baseKV	zone	Vmax	Vmin
mpc.bus = [
	1	1	97.6	44.2	0	0	1	1.03026	-30.0856	345	1	1.06	0.94	0	0	0	0	0;
	2	1	0	0	0	0	1	1.04204	-25.9965	345	1	1.06	0.94	0	0	0	0	0;
	3	1	322	2.4	0	0	1	1.01686	-27.9944	345	1	1.06	0.94	0	0	0	0	0;
	4	1	500	184	0	0	1	0.981465	-25.1914	345	1	1.06	0.94	0	0	0	0	0;
	5	1	0	0	0	0	1	0.979572	-21.4796	345	1	1.06	0.94	0	0	0	0	0;
	6	1	0	0	0	0	1	0.981939	-20.1152	345	1	1.06	0.94	0	0	0	0	0;
	7	1	233.8	84	0	0	1	0.971481	-23.2091	345	1	1.06	0.94	0	0	0	0	0;
	8	1	522	176.6	0	0	1	0.971028	-24.1341	345	1	1.06	0.94	0	0	0	0	0;
	9	1	6.5	-66.6	0	0	1	1.01904	-28.5856	345	1	1.06	0.94	0	0	0	0	0;
	10	1	0	0	0	0	1	0.997689	-18.5987	345	1	1.06	0.94	0	0	0	0	0;
	11	1	0	0	0	0	1	0.991204	-19.1432	345	1	1.06	0.94	0	0	0	0	0;
	12	1	8.53	88	0	0	1	0.978481	-19.6419	345	1	1.06	0.94	0	0	0	0	0;
	13	1	0	0	0	0	1	0.993641	-20.0028	345	1	1.06	0.94	0	0	0	0	0;
	14	1	0	0	0	0	1	0.990407	-23.4184	345	1	1.06	0.94	0	0	0	0	0;
	15	1	320	153	0	0	1	1.00055	-27.7585	345	1	1.06	0.94	0	0	0	0	0;
	16	1	329	32.3	0	0	1	1.0205	-27.963	345	1	1.06	0.94	0	0	0	0	0;
	17	1	0	0	0	0	1	1.01996	-28.935	345	1	1.06	0.94	0	0	0	0	0;
	18	1	197.5	37.5	0	0	1	1.0169	-29.1263	345	1	1.06	0.94	0	0	0	0	0;
	19	1	0	0	0	0	1	1.04404	-25.0828	345	1	1.06	0.94	0	0	0	0	0;
	20	1	850	128.75	0	0	1	0.984403	-27.9036	345	1	1.06	0.94	0	0	0	0	0;
	21	1	342.5	143.75	0	0	1	1.02041	-25.9695	345	1	1.06	0.94	0	0	0	0	0;
	22	1	0	0	0	0	1	1.04294	-21.4113	345	1	1.06	0.94	0	0	0	0	0;
	23	1	247.5	84.6	0	0	1	1.03668	-21.5783	345	1	1.06	0.94	0	0	0	0	0;
	24	1	385.75	-115.25	0	0	1	1.02747	-28.1132	345	1	1.06	0.94	0	0	0	0	0;
	25	1	280	59	0	0	1	1.04046	-25.5766	345	1	1.06	0.94	0	0	0	0	0;
	26	1	173.75	21.25	0	0	1	1.03599	-28.8737	345	1	1.06	0.94	0	0	0	0	0;
	27	1	351.25	94.375	0	0	1	1.02084	-30.3965	345	1	1.06	0.94	0	0	0	0	0;
	28	1	257.5	34.5	0	0	1	1.03653	-27.3374	345	1	1.06	0.94	0	0	0	0	0;
	29	1	283.5	26.9	0	0	1	1.03833	-24.7627	345	1	1.06	0.94	0	0	0	0	0;
	30	2	0	0	0	0	1	1.0499	-22.1071	345	1	1.06	0.94	0	0	0	0	0;
	31	3	11.5	5.75	0	0	1	0.982	0	345	1	0.982	0.982	0	0	0	0	0;
	32	2	0	0	0	0	1	0.9841	-8.55679	345	1	1.06	0.94	0	0	0	0	0;
	33	2	0	0	0	0	1	0.9972	-19.852	345	1	1.06	0.94	0	0	0	0	0;
	34	2	0	0	0	0	1	1.0123	-22.6979	345	1	1.06	0.94	0	0	0	0	0;
	35	2	0	0	0	0	1	1.0494	-16.4174	345	1	1.06	0.94	0	0	0	0	0;
	36	2	0	0	0	0	1	1.0536	-13.5869	345	1	1.06	0.94	0	0	0	0	0;
	37	2	0	0	0	0	1	1.0175	-18.8782	345	1	1.06	0.94	0	0	0	0	0;
	38	2	0	0	0	0	1	1.0165	-18.4247	345	1	1.06	0.94	0	0	0	0	0;
	39	2	1104	250	0	0	1	1.02	-31.2806	345	1	1.06	0.94	0	0	0	0	0;
];

%% generator data
%	bus	Pg	Qg	Qmax	Qmin	Vg	mBase	status	Pmax	Pmin	Pc1	Pc2	Qc1min	Qc1max	Qc2min	Qc2max	ramp_agc	ramp_10	ramp_30	ramp_q	apf
mpc.gen = [
	31	0	0	300	-100	0.982	1	1	646	-1e-10	0	0	0	0	0	0	0	0	0	0	0	0	0	0	0	1;
	30	400	0	400	140	1.0499	0	1	1040	-1e-10	0	0	0	0	0	0	0	0	0	0	0	0	0	0	0	0;
	32	800	0	300	150	0.9841	0	1	725	-1e-10	0	0	0	0	0	0	0	0	0	0	0	0	0	0	0	0;
	33	632	0	250	-1e-10	0.9972	0	1	652	-1e-10	0	0	0	0	0	0	0	0	0	0	0	0	0	0	0	0;
	34	508	0	167	-1e-10	1.0123	0	1	508	-1e-10	0	0	0	0	0	0	0	0	0	0	0	0	0	0	0	0;
	35	650	0	300	-100	1.0494	0	1	687	-1e-10	0	0	0	0	0	0	0	0	0	0	0	0	0	0	0	0;
	36	560	0	240	-1e-10	1.0536	0	1	580	-1e-10	0	0	0	0	0	0	0	0	0	0	0	0	0	0	0	0;
	37	520	0	250	-1e-10	1.0175	0	1	564	-1e-10	0	0	0	0	0	0	0	0	0	0	0	0	0	0	0	0;
	38	730	0	300	-150	1.0165	0	1	865	-1e-10	0	0	0	0	0	0	0	0	0	0	0	0	0	0	0	0;
	39	820	0	300	-100	1.02	0	1	1100	-1e-10	0	0	0	0	0	0	0	0	0	0	0	0	0	0	0	0;
];

%% branch data
%	fbus	tbus	r	x	b	rateA	rateB	rateC	ratio	angle	status	angmin	angmax
mpc.branch = [
	1	2	0.0035	0.0411	0.6987	600	0	0	0	0	1	-360	360	0	0	0	0	0	0	0	0	0;
	1	39	0.001	0.025	0.75	1000	0	0	0	0	1	-360	360	0	0	0	0	0	0	0	0	0;
	2	3	0.0013	0.0151	0.2572	500	0	0	0	0	1	-360	360	0	0	0	0	0	0	0	0	0;
	2	25	0.007	0.0086	0.146	500	0	0	0	0	1	-360	360	0	0	0	0	0	0	0	0	0;
	3	4	0.0013	0.0213	0.2214	500	0	0	0	0	1	-360	360	0	0	0	0	0	0	0	0	0;
	3	18	0.0011	0.0133	0.2138	500	0	0	0	0	1	-360	360	0	0	0	0	0	0	0	0	0;
	4	5	0.0008	0.0128	0.1342	600	0	0	0	0	1	-360	360	0	0	0	0	0	0	0	0	0;
	4	14	0.0008	0.0129	0.1382	500	0	0	0	0	1	-360	360	0	0	0	0	0	0	0	0	0;
	5	6	0.0002	0.0026	0.0434	1200	0	0	0	0	1	-360	360	0	0	0	0	0	0	0	0	0;
	5	8	0.0008	0.0112	0.1476	900	0	0	0	0	1	-360	360	0	0	0	0	0	0	0	0	0;
	6	7	0.0006	0.0092	0.113	900	0	0	0	0	1	-360	360	0	0	0	0	0	0	0	0	0;
	6	11	0.0007	0.0082	0.1389	480	0	0	0	0	1	-360	360	0	0	0	0	0	0	0	0	0;
	7	8	0.0004	0.0046	0.078	900	0	0	0	0	1	-360	360	0	0	0	0	0	0	0	0	0;
	8	9	0.0023	0.0363	0.3804	900	0	0	0	0	1	-360	360	0	0	0	0	0	0	0	0	0;
	9	39	0.001	0.025	1.2	900	0	0	0	0	1	-360	360	0	0	0	0	0	0	0	0	0;
	10	11	0.0004	0.0043	0.0729	600	0	0	0	0	1	-360	360	0	0	0	0	0	0	0	0	0;
	10	13	0.0004	0.0043	0.0729	600	0	0	0	0	1	-360	360	0	0	0	0	0	0	0	0	0;
	13	14	0.0009	0.0101	0.1723	600	0	0	0	0	1	-360	360	0	0	0	0	0	0	0	0	0;
	14	15	0.0018	0.0217	0.366	600	0	0	0	0	1	-360	360	0	0	0	0	0	0	0	0	0;
	15	16	0.0009	0.0094	0.171	600	0	0	0	0	1	-360	360	0	0	0	0	0	0	0	0	0;
	16	17	0.0007	0.0089	0.1342	600	0	0	0	0	1	-360	360	0	0	0	0	0	0	0	0	0;
	16	19	0.0016	0.0195	0.304	600	0	0	0	0	1	-360	360	0	0	0	0	0	0	0	0	0;
	16	21	0.0008	0.0135	0.2548	600	0	0	0	0	1	-360	360	0	0	0	0	0	0	0	0	0;
	16	24	0.0003	0.0059	0.068	600	0	0	0	0	1	-360	360	0	0	0	0	0	0	0	0	0;
	17	18	0.0007	0.0082	0.1319	600	0	0	0	0	1	-360	360	0	0	0	0	0	0	0	0	0;
	17	27	0.0013	0.0173	0.3216	600	0	0	0	0	1	-360	360	0	0	0	0	0	0	0	0	0;
	21	22	0.0008	0.014	0.2565	900	0	0	0	0	1	-360	360	0	0	0	0	0	0	0	0	0;
	22	23	0.0006	0.0096	0.1846	600	0	0	0	0	1	-360	360	0	0	0	0	0	0	0	0	0;
	23	24	0.0022	0.035	0.361	600	0	0	0	0	1	-360	360	0	0	0	0	0	0	0	0	0;
	23	36	0.0005	0.0272	0	900	0	0	0	0	1	-360	360	0	0	0	0	0	0	0	0	0;
	25	26	0.0032	0.0323	0.531	600	0	0	0	0	1	-360	360	0	0	0	0	0	0	0	0	0;
	26	27	0.0014	0.0147	0.2396	600	0	0	0	0	1	-360	360	0	0	0	0	0	0	0	0	0;
	26	28	0.0043	0.0474	0.7802	600	0	0	0	0	1	-360	360	0	0	0	0	0	0	0	0	0;
	26	29	0.0057	0.0625	1.029	600	0	0	0	0	1	-360	360	0	0	0	0	0	0	0	0	0;
	28	29	0.0014	0.0151	0.249	600	0	0	0	0	1	-360	360	0	0	0	0	0	0	0	0	0;
	2	30	0	0.0181	0	900	0	0	1.025	0	1	-360	360	0	0	0	0	0	0	0	0	0;
	6	31	0	0.025	0	1800	0	0	1.07	0	1	-360	360	0	0	0	0	0	0	0	0	0;
	10	32	0	0.02	0	900	0	0	1.07	0	1	-360	360	0	0	0	0	0	0	0	0	0;
	12	11	0.0016	0.0435	0	500	0	0	1.006	0	1	-360	360	0	0	0	0	0	0	0	0	0;
	12	13	0.0016	0.0435	0	500	0	0	1.006	0	1	-360	360	0	0	0	0	0	0	0	0	0;
	19	20	0.0007	0.0138	0	900	0	0	1.06	0	1	-360	360	0	0	0	0	0	0	0	0	0;
	19	33	0.0007	0.0142	0	900	0	0	1.07	0	1	-360	360	0	0	0	0	0	0	0	0	0;
	20	34	0.0009	0.018	0	900	0	0	1.009	0	1	-360	360	0	0	0	0	0	0	0	0	0;
	22	35	0	0.0143	0	900	0	0	1.025	0	1	-360	360	0	0	0	0	0	0	0	0	0;
	25	37	0.0006	0.0232	0	900	0	0	1.025	0	1	-360	360	0	0	0	0	0	0	0	0	0;
	29	38	0.0008	0.0156	0	1200	0	0	1.025	0	1	-360	360	0	0	0	0	0	0	0	0	0;
];

